/*--------------------------------*- C++ -*----------------------------------*\
  =========                 |
  \\      /  F ield         | OpenFOAM: The Open Source CFD Toolbox
   \\    /   O peration     | Website:  https://openfoam.org
    \\  /    A nd           | Version:  dev
     \\/     M anipulation  |
\*---------------------------------------------------------------------------*/
FoamFile
{
    version     2.0;
    format      ascii;
    class       polyBoundaryMesh;
    location    "constant/polyMesh";
    object      boundary;
}
// * * * * * * * * * * * * * * * * * * * * * * * * * * * * * * * * * * * * * //

10
(
    inlet
    {
        type            patch;
        nFaces          0;
        startFace       882;
    }
    outlet
    {
        type            patch;
        nFaces          0;
        startFace       882;
    }
    flap
    {
        type            wall;
        inGroups        List<word> 1(wall);
        nFaces          0;
        startFace       882;
    }
    upperWall
    {
        type            wall;
        inGroups        List<word> 1(wall);
        nFaces          22;
        startFace       882;
    }
    lowerWall
    {
        type            wall;
        inGroups        List<word> 1(wall);
        nFaces          0;
        startFace       904;
    }
    frontAndBack
    {
        type            empty;
        inGroups        List<word> 1(empty);
        nFaces          930;
        startFace       904;
    }
    procBoundary1to0
    {
        type            processor;
        inGroups        List<word> 1(processor);
        nFaces          18;
        startFace       1834;
        matchTolerance  0.0001;
        transform       unknown;
        myProcNo        1;
        neighbProcNo    0;
    }
    procBoundary1to2
    {
        type            processor;
        inGroups        List<word> 1(processor);
        nFaces          17;
        startFace       1852;
        matchTolerance  0.0001;
        transform       unknown;
        myProcNo        1;
        neighbProcNo    2;
    }
    procBoundary1to3
    {
        type            processor;
        inGroups        List<word> 1(processor);
        nFaces          9;
        startFace       1869;
        matchTolerance  0.0001;
        transform       unknown;
        myProcNo        1;
        neighbProcNo    3;
    }
    procBoundary1to4
    {
        type            processor;
        inGroups        List<word> 1(processor);
        nFaces          30;
        startFace       1878;
        matchTolerance  0.0001;
        transform       unknown;
        myProcNo        1;
        neighbProcNo    4;
    }
)

// ************************************************************************* //
